%chk=CH3SCH3_a2z
%nproc=28
%mem=28GB
#b3lyp/aug-cc-pvdz
#SCF=tight
#maxdisk=200GB
#Pop=MK iop(6/33=2) iop(6/42=6) iop(6/43=20)
#IOP(5/87=12)
#density=current

   C3 MP2/6-311++G(d,p) coordinates

  0                     1
  C       -1.361796871769       -0.515789669798       -0.000057835254
  H       -2.293815474604        0.053063245903       -0.000100910602
  H       -1.338738381082       -1.144434093987       -0.893950138079
  H       -1.338815515689       -1.144425446053        0.893842578094
  S        0.000000000000        0.666316788502       -0.000005794613
  C        1.361796871989       -0.515789668820        0.000066888412
  H        2.293815474803        0.053063247384        0.000108971075
  H        1.338733743617       -1.144425283672        0.893965305093
  H        1.338820151777       -1.144434253910       -0.893827410725


