%chk=NH4+_b3lyp_a2z_esp
%nproc=28
%mem=28GB
#b3lyp/aug-cc-pvdz
#SCF=tight
#maxdisk=200GB
#Pop=MK iop(6/33=2) iop(6/42=6) iop(6/43=20)
#IOP(5/87=12)
#density=current

    Coordinates from nh4_m6311_opt.chk

    1    1
H   -0.951190136213    0.348537851523    0.152959323805
N   -0.000052158259    0.000090031932    0.000048013550
H    0.142159883375   -0.855519120874    0.545365091572
H    0.133112562719   -0.203821543598   -0.995003830076
H    0.676282797933    0.710172589425    0.296343319850


